Circuit: * C:\Users\ahmad\switchdrive\xMotion UNIGE - HEPIA\R&D\xMotion 1\Design\kicad xMotion\simulation_demi_pont_2.asc

WARNING: Less than two connections to node VOUT.  This node is used by V:U2:OSO.
Direct Newton iteration failed to find .op point.  (Use ".option noopiter" to skip.)
Starting Gmin stepping
Gmin = 10
Gmin = 1.07374
Gmin = 0.115292
Gmin = 0.0123794
Gmin = 0.00132923
Gmin = 0.000142725
Gmin = 1.5325e-005
Gmin = 1.6455e-006
Gmin = 1.76685e-007
Gmin = 1.89714e-008
Gmin = 2.03704e-009
Gmin = 2.18725e-010
Gmin = 2.34854e-011
Gmin = 2.52173e-012
Gmin = 2.70769e-013
Gmin = 0
Gmin stepping succeeded in finding the operating point.




Date: Wed Sep 25 15:00:12 2019
Total elapsed time: 0.174 seconds.

tnom = 27
temp = 27
method = modified trap
totiter = 2776
traniter = 2154
tranpoints = 1077
accept = 1077
rejected = 0
matrix size = 141
fillins = 156
solver = Normal
Thread vector: 15.3/7.8[3] 2.2/3.6[1] 3.7/2.2[3] 0.9/2.2[1]  2592/500
Matrix Compiler1: 10.52 KB object code size  2.3/1.2/[0.5]
Matrix Compiler2: 12.69 KB object code size  3.1/5.1/[1.7]

